Version 4
SHEET 1 2388 752
WIRE 320 -576 256 -576
WIRE 688 -576 560 -576
WIRE 992 -576 928 -576
WIRE 1264 -576 1184 -576
WIRE 1264 -544 1072 -544
WIRE 128 -528 128 -560
WIRE 1472 -528 1440 -528
WIRE 1184 -512 1136 -512
WIRE 1264 -512 1184 -512
WIRE 1136 -480 1136 -512
WIRE 48 -464 48 -496
WIRE 560 -416 512 -416
WIRE 720 -416 656 -416
WIRE 48 -384 48 -400
WIRE 128 -384 128 -448
WIRE 560 -352 512 -352
WIRE 688 -352 656 -352
WIRE 1072 -352 1072 -544
WIRE 1136 -352 1136 -400
WIRE 512 -320 512 -352
WIRE 688 -320 688 -352
WIRE 48 -192 48 -224
WIRE 352 -192 352 -224
WIRE 656 -192 656 -224
WIRE 960 -192 960 -224
WIRE 48 -64 48 -112
WIRE 352 -64 352 -112
WIRE 352 -64 48 -64
WIRE 656 -64 656 -112
WIRE 656 -64 352 -64
WIRE 960 -64 960 -112
WIRE 960 -64 656 -64
WIRE 48 -32 48 -64
WIRE 736 64 688 64
WIRE 1104 64 976 64
WIRE 1424 64 1344 64
WIRE 48 96 48 64
WIRE 48 240 48 176
FLAG 48 -224 x3
FLAG 352 -224 x2
FLAG 656 -224 x1
FLAG 960 -224 x0
FLAG 48 64 y
FLAG 688 64 y
FLAG 256 -576 in_FRA
FLAG 992 -576 in_filt
FLAG 48 240 0
FLAG 1184 -576 in_filt
FLAG 1136 -352 0
FLAG 1184 -512 Sampling
FLAG 1072 -352 0
FLAG 1472 -528 x4
FLAG 128 -560 in
FLAG 128 -384 0
FLAG 688 -320 0
FLAG 512 -320 0
FLAG 48 -384 0
FLAG 48 -496 in_FRA
FLAG 512 -416 in_FRA
FLAG 720 -416 y_filt
FLAG 1424 64 y_filt
FLAG 48 -32 0
SYMBOL bv 48 -208 R0
SYMATTR InstName B4
SYMATTR Value V=delay(V(x4),{sp})
SYMBOL bv 352 -208 R0
SYMATTR InstName B3
SYMATTR Value V=delay(V(x3),{sp})
SYMBOL bv 656 -208 R0
SYMATTR InstName B2
SYMATTR Value V=delay(V(x2),{sp})
SYMBOL bv 960 -208 R0
SYMATTR InstName B1
SYMATTR Value V=delay(V(x1),{sp})
SYMBOL bv 48 80 R0
SYMATTR InstName B5
SYMATTR Value V=0.2*(V(x4)+v(x3)+V(x2)+V(x1)+V(x0))
SYMBOL SpecialFunctions\\2ndOrdLowpass 816 48 R0
SYMATTR InstName U1
SYMATTR Value f0={1/(2*sp)} Q=0.707 H=1
SYMBOL SpecialFunctions\\2ndOrdLowpass 1184 48 R0
SYMATTR InstName U2
SYMATTR Value f0={1/(2*sp)} Q=0.707 H=1
SYMBOL SpecialFunctions\\2ndOrdLowpass 400 -592 R0
SYMATTR InstName U3
SYMATTR Value f0={1/(2*sp)} Q=0.707 H=1
SYMBOL SpecialFunctions\\2ndOrdLowpass 768 -592 R0
SYMATTR InstName U4
SYMATTR Value f0={1/(2*sp)} Q=0.707 H=1
SYMBOL SpecialFunctions\\sample 1344 -544 R0
SYMATTR InstName A1
SYMBOL voltage 1136 -496 R0
WINDOW 123 0 0 Left 0
WINDOW 39 0 0 Left 0
SYMATTR InstName V2
SYMATTR Value PULSE(0 1 0 5n 5n 50n {sp})
SYMBOL voltage 128 -544 R0
WINDOW 123 24 124 Left 2
WINDOW 39 0 0 Left 0
SYMATTR Value2 AC 1
SYMATTR InstName V1
SYMATTR Value SINE(0 1 1k)
SYMBOL fra 48 -464 R180
SYMATTR InstName @1
SYMATTR SpiceLine delay=2m fstart=1 fend=5k oct=4 fcoarse=100 flist=1.5k 1.8k 1.9k 1.95k 2k 2.05k 2.1k 2.2k 2.4k 2.5k 2.6k 2.8k 3k 3.2k 3.5k 3.7k 3.9k 4k 4.1k 4.2k 4.3k 4.4k 4.5k 4.6k 4.7k 4.8k 4.9k tavgmin=5m tsettle=1m
SYMBOL fraprobe 608 -336 R0
SYMATTR InstName &1
TEXT 1288 -312 Left 2 !.param sp=100u
TEXT 1288 -256 Left 2 ;.tran 10m
TEXT 1288 -224 Left 2 ;.ac dec 50 100 5k
TEXT 1288 -184 Left 2 !.fra
