Version 4
SHEET 1 2500 884
WIRE 1008 -736 928 -736
WIRE 1008 -704 816 -704
WIRE 1216 -688 1184 -688
WIRE 64 -672 -64 -672
WIRE 352 -672 304 -672
WIRE 464 -672 352 -672
WIRE 544 -672 528 -672
WIRE 928 -672 880 -672
WIRE 1008 -672 928 -672
WIRE 880 -640 880 -672
WIRE -368 -624 -448 -624
WIRE -448 -576 -448 -624
WIRE 816 -528 816 -704
WIRE 880 -528 880 -560
WIRE -448 -416 -448 -496
WIRE -48 -384 -48 -432
WIRE 240 -384 240 -432
WIRE 544 -384 544 -432
WIRE 848 -384 848 -432
WIRE 1168 -384 1168 -432
WIRE -384 -256 -448 -256
WIRE -48 -240 -48 -304
WIRE 240 -240 240 -304
WIRE 240 -240 -48 -240
WIRE 544 -240 544 -304
WIRE 544 -240 240 -240
WIRE 848 -240 848 -304
WIRE 848 -240 544 -240
WIRE 1168 -240 1168 -304
WIRE 1168 -240 848 -240
WIRE -48 -208 -48 -240
WIRE -448 -176 -448 -256
WIRE -48 -64 -48 -112
WIRE 240 -64 240 -112
WIRE 544 -64 544 -112
WIRE 848 -64 848 -112
WIRE 1168 -64 1168 -112
WIRE -448 -32 -448 -96
WIRE -368 80 -448 80
WIRE -48 80 -48 16
WIRE 240 80 240 16
WIRE 240 80 -48 80
WIRE 544 80 544 16
WIRE 544 80 240 80
WIRE 848 80 848 16
WIRE 848 80 544 80
WIRE 1168 80 1168 16
WIRE 1168 80 848 80
WIRE -48 112 -48 80
WIRE -448 208 -448 80
WIRE 80 208 48 208
WIRE 128 208 80 208
WIRE 464 208 368 208
WIRE 528 208 464 208
WIRE 592 208 576 208
WIRE 48 272 48 208
WIRE -448 352 -448 288
WIRE 48 384 48 352
FLAG -48 -432 x9
FLAG 240 -432 x8
FLAG 544 -432 x7
FLAG 848 -432 x6
FLAG 1168 -432 x5
FLAG 80 208 Vout
FLAG -368 -624 Source
FLAG 352 -672 in_filt
FLAG -48 -208 0
FLAG -48 -112 x4
FLAG 240 -112 x3
FLAG 544 -112 x2
FLAG 848 -112 x1
FLAG 1168 -112 x0
FLAG -48 112 0
FLAG 48 384 0
FLAG -448 -416 0
FLAG -448 352 0
FLAG -448 -32 0
FLAG -384 -256 Noise
FLAG 592 208 filtered_buf
FLAG 464 208 filtered
FLAG -368 80 in
FLAG 544 -672 in_filt_buf
FLAG -64 -672 in
FLAG 928 -736 in_filt
FLAG 880 -528 0
FLAG 928 -672 Sampling
FLAG 816 -528 0
FLAG 1216 -688 x10
SYMBOL bv -48 -400 R0
SYMATTR InstName B1
SYMATTR Value V=delay(V(x10),{sp})
SYMBOL bv 240 -400 R0
SYMATTR InstName B2
SYMATTR Value V=delay(V(x9),{sp})
SYMBOL bv 544 -400 R0
SYMATTR InstName B3
SYMATTR Value V=delay(V(x8),{sp})
SYMBOL voltage -448 -592 R0
WINDOW 123 24 124 Left 2
WINDOW 39 0 0 Left 0
SYMATTR Value2 AC 1
SYMATTR InstName V1
SYMATTR Value PULSE(0 1 2m 1u 1u 2m 4m)
SYMBOL bv 848 -400 R0
SYMATTR InstName B4
SYMATTR Value V=delay(V(x7),{sp})
SYMBOL bv 1168 -400 R0
SYMATTR InstName B5
SYMATTR Value V=delay(V(x6),{sp})
SYMBOL bv 48 256 R0
SYMATTR InstName B11
SYMATTR Value V=filter(V(x0),V(x1),V(x2),V(x3),V(x4),V(x5),V(x6),V(x7),V(x8),V(x9),V(x10))
SYMBOL SpecialFunctions\\2ndOrdLowpass 208 192 R0
SYMATTR InstName U1
SYMATTR Value f0={1/(4*sp)} Q=0.707 H=1
SYMBOL SpecialFunctions\\2ndOrdLowpass 144 -688 R0
SYMATTR InstName U3
SYMATTR Value f0={1/(4*sp)} Q=0.707 H=1
SYMBOL bv -48 -80 R0
SYMATTR InstName B6
SYMATTR Value V=delay(V(x5),{sp})
SYMBOL bv 240 -80 R0
SYMATTR InstName B7
SYMATTR Value V=delay(V(x4),{sp})
SYMBOL bv 544 -80 R0
SYMATTR InstName B8
SYMATTR Value V=delay(V(x3),{sp})
SYMBOL bv 848 -80 R0
SYMATTR InstName B9
SYMATTR Value V=delay(V(x2),{sp})
SYMBOL bv 1168 -80 R0
SYMATTR InstName B10
SYMATTR Value V=delay(V(x1),{sp})
SYMBOL bv -448 192 R0
SYMATTR InstName B12
SYMATTR Value V=V(source)+v(Noise)
SYMBOL bv -448 -192 R0
SYMATTR InstName B13
SYMATTR Value V=1.15*white(50k*time)
SYMBOL Digital\\buf1 464 -736 R0
SYMATTR InstName A1
SYMBOL Digital\\buf1 528 144 R0
SYMATTR InstName A2
SYMBOL SpecialFunctions\\sample 1088 -704 R0
SYMATTR InstName A3
SYMBOL voltage 880 -656 R0
WINDOW 123 0 0 Left 0
WINDOW 39 0 0 Left 0
SYMATTR InstName V2
SYMATTR Value PULSE(0 1 0 1n 1n 5n {sp})
TEXT 1144 208 Left 2 !.param sp=10u
TEXT 1144 248 Left 2 !.tran 20m
TEXT 1144 288 Left 2 !.inc MA11.txt
