Version 4
SHEET 1 2388 752
WIRE 304 -512 240 -512
WIRE 672 -512 544 -512
WIRE 976 -512 912 -512
WIRE 48 -464 48 -496
WIRE 48 -320 48 -384
WIRE 48 -192 48 -224
WIRE 352 -192 352 -224
WIRE 656 -192 656 -224
WIRE 960 -192 960 -224
WIRE 48 -64 48 -112
WIRE 352 -64 352 -112
WIRE 352 -64 48 -64
WIRE 656 -64 656 -112
WIRE 656 -64 352 -64
WIRE 960 -64 960 -112
WIRE 960 -64 656 -64
WIRE 48 -32 48 -64
WIRE 496 48 448 48
WIRE 864 48 736 48
WIRE 1184 48 1104 48
WIRE 48 96 48 64
WIRE 48 240 48 176
FLAG 48 -224 x3
FLAG 352 -224 x2
FLAG 656 -224 x1
FLAG 960 -224 x0
FLAG 48 64 y
FLAG 448 48 y
FLAG 240 -512 in
FLAG 976 -512 x4
FLAG 48 240 0
FLAG 48 -496 in
FLAG 48 -320 0
FLAG 1184 48 y_filt
FLAG 48 -32 0
SYMBOL bv 48 -208 R0
SYMATTR InstName B4
SYMATTR Value V=delay(V(x4),{sp})
SYMBOL bv 352 -208 R0
SYMATTR InstName B3
SYMATTR Value V=delay(V(x3),{sp})
SYMBOL bv 656 -208 R0
SYMATTR InstName B2
SYMATTR Value V=delay(V(x2),{sp})
SYMBOL bv 960 -208 R0
SYMATTR InstName B1
SYMATTR Value V=delay(V(x1),{sp})
SYMBOL bv 48 80 R0
SYMATTR InstName B5
SYMATTR Value V=0.2*(V(x4)+v(x3)+V(x2)+V(x1)+V(x0))
SYMBOL SpecialFunctions\\2ndOrdLowpass 576 32 R0
SYMATTR InstName U1
SYMATTR Value f0={1/(2*sp)} Q=0.707 H=1
SYMBOL SpecialFunctions\\2ndOrdLowpass 944 32 R0
SYMATTR InstName U2
SYMATTR Value f0={1/(2*sp)} Q=0.707 H=1
SYMBOL SpecialFunctions\\2ndOrdLowpass 384 -528 R0
SYMATTR InstName U3
SYMATTR Value f0={1/(2*sp)} Q=0.707 H=1
SYMBOL SpecialFunctions\\2ndOrdLowpass 752 -528 R0
SYMATTR InstName U4
SYMATTR Value f0={1/(2*sp)} Q=0.707 H=1
SYMBOL voltage 48 -480 R0
WINDOW 123 24 124 Left 2
WINDOW 39 0 0 Left 0
SYMATTR Value2 AC 1
SYMATTR InstName V1
SYMATTR Value SINE(0 1 1k)
TEXT 1000 -392 Left 2 !.param sp=100u
TEXT 1000 -352 Left 2 ;.tran 10m
TEXT 1000 -320 Left 2 !.ac dec 100 10 5k
