Version 4
SHEET 1 880 680
WIRE 256 -64 48 -64
WIRE 464 -64 256 -64
WIRE 256 -16 256 -64
WIRE 464 -16 464 -64
WIRE 256 112 256 64
WIRE 464 112 464 64
WIRE 48 128 48 -64
WIRE 464 272 464 176
WIRE 256 320 256 192
WIRE 400 320 256 320
WIRE 48 464 48 208
WIRE 464 464 464 368
WIRE 464 464 48 464
SYMBOL diode 448 112 R0
SYMATTR InstName D1
SYMBOL Res 448 -32 R0
SYMATTR InstName R1
SYMBOL Res 240 -32 R0
SYMATTR InstName R2
SYMBOL Voltage 48 112 R0
SYMATTR InstName V1
SYMBOL sw 256 96 R0
SYMATTR InstName S1
SYMBOL npn 400 272 R0
SYMATTR InstName Q1
